22
XYZ file generated by Avogadro.
C     -1.89162    2.52286   -0.17438
C     -3.15693    1.74257   -0.31927
C     -0.85807    1.47243   -0.41770
H     -1.82880    3.32416   -0.91411
H     -3.60600   -0.36252   -0.75798
C     -1.45608    0.26235   -0.67057
H     -1.79794    2.95195    0.82564
H     -4.15043    2.16400   -0.20231
C     -2.87925    0.43033   -0.60915
H     -0.94820   -0.67578   -0.86953
H      0.21219    1.64909   -0.38395
C     -0.52330   -0.37614    2.69782
C     -0.37351   -1.84488    2.47056
H      0.20393   -2.05363    1.56696
H      0.10574   -2.33393    3.32163
H     -2.24890    0.97763    2.81470
H      0.30759    0.30775    2.83631
C     -1.84956   -0.02341    2.68708
C     -2.63787   -1.19923    2.45283
C     -1.79625   -2.27551    2.32255
H     -3.72062   -1.21776    2.38233
H     -2.10785   -3.29757    2.13322
