22
Coordinates from ORCA-job opt+numfreq
  C   -1.58369820653135      2.13871562413934     -0.00365341033552
  C   -2.96827271419714      1.58565825405542     -0.06579549445831
  C   -0.76171667141552      1.01961234747544     -0.55039557043743
  H   -1.47927887300386      3.05086267865124     -0.59525882017258
  H   -3.76629224540438     -0.31345821127736     -0.72724545789505
  C   -1.56056258541506     -0.00693183353524     -0.86699079144205
  H   -1.29689015292116      2.38330808499337      1.02097633284822
  H   -3.83274564500489      2.13634439284907      0.25672610021453
  C   -2.93143013252136      0.34424506527670     -0.56479055675699
  H   -1.26431889276823     -0.95435695706791     -1.28125566757180
  H   0.30663385315467      1.07709277965716     -0.65490402427814
  C   -0.81832021661630     -0.01100149669473      2.85393494026269
  C   -0.40849650874800     -1.32190222340623      2.27035218513814
  H   0.14927005546316     -1.18953579434672      1.34120131618218
  H   0.22708346221549     -1.89260380165508      2.95104876800224
  H   -2.74702527476817      0.86206718622476      3.30156761800025
  H   -0.11080175390390      0.74019410617642      3.15496218365629
  C   -2.15371662023308      0.04643051706517      2.92785355142447
  C   -2.71310183616374     -1.18618945856923      2.41628333608416
  C   -1.71858999728142     -1.99507373227672      2.03143005310450
  H   -3.76792582863653     -1.38907751644689      2.36764769256420
  H   -1.80153321529924     -2.97964001128798      1.60898571586598
