6
Coordinates from ORCA-job opt+numfreq
  C   -1.60094318376168      1.07155013264617     -0.00186200862134
  H   -2.02448156207438      1.83325850317293     -0.63556617354591
  H   -1.92833708366936      1.17279985967845      1.01975790118969
  H   -1.78788179098984      0.08216933864488     -0.38582184634639
  I   0.57706772273725      1.36367676323830     -0.01199850688838
  I   -4.73696410224199      0.65532540261928      0.01548063421232
