6
Coordinates from ORCA-job optts+numfreq_im9
  C   -0.23987441265508     -0.03191474754517      0.00124952012574
  H   -0.09637050501315      0.81541497026435     -0.64309600164304
  H   0.00137354869016      0.14692173055771      1.03232032485887
  H   0.14145553156593     -0.95788009962106     -0.39052342163143
  I   2.69641080602631      0.36067484921509     -0.01315847743037
  I   -2.50299496861418     -0.33321670287092      0.01320805572023
