6
Coordinates from ORCA-job optts+numfreq_im2
  C   0.17140077665908      0.02266125984664     -0.00100481153613
  H   -0.12777596774975      0.81976504340479     -0.64958824233902
  H   -0.02910237911362      0.14436842322398      1.04317384898865
  H   0.11277267359069     -0.97151320530129     -0.39429626776179
  I   2.52851353672938      0.33818012852035     -0.01236347538944
  I   -2.65580864011577     -0.35346164969448      0.01407894803772
