6
Coordinates from ORCA-job optts+numfreq_NEB-CI_converged
  C   0.00004171117451     -0.00015681022749     -0.00011100192612
  H   -0.11415944499245      0.83036117449280     -0.65644232616233
  H   -0.01441942950749      0.14790354775771      1.05402353100080
  H   0.12876598316342     -0.97970709733052     -0.39849248454853
  I   2.59243914564211      0.34672318182384     -0.01268027389396
  I   -2.59266796548010     -0.34512399651634      0.01370255553015
