6
Coordinates from ORCA-job opt+numfreq
  C   -2.55809981731743      0.94452173287401      0.00343622540707
  H   -2.35593537273015      1.78970615662893     -0.63363572651494
  H   -2.25914996251049      1.12923983166847      1.02203207182099
  H   -2.12197771174628      0.03834655659330     -0.38369424315192
  I   0.57668903243211      1.36337621361308     -0.01215346930003
  I   -4.73676391412776      0.65511389062222      0.01533013873884
