6
Coordinates from ORCA-job scants+numfreq
  C   -1.63204540290108      1.06775410953223     -0.00148509554008
  H   -2.03690158230036      1.83532787775403     -0.63719646267389
  H   -1.94004852118072      1.17259013601073      1.02386848809530
  H   -1.80098418732127      0.07764960691067     -0.38666310803467
  I   0.56924201738984      1.36153554745612     -0.01264504306310
  I   -4.66080232368642      0.66392272233622      0.01411122121642
