6
Coordinates from ORCA-job scants+numfreq
  C   -2.02327643625859      1.01560948946115      0.00054169476275
  H   -2.01700257250604      1.85885952566985     -0.65342529284633
  H   -1.91765459014857      1.17933315887053      1.04974205284069
  H   -1.77528079255099      0.05664403498529     -0.39653036757702
  I   0.74644867141118      1.38508140528268     -0.01360890446910
  I   -4.51477427994698      0.68325238573051      0.01327081728901
