6
Coordinates from ORCA-job scants+numfreq
  C   -1.67103750579848      1.06259939431767     -0.00125636976817
  H   -2.04647195527940      1.83860234030168     -0.64059851951766
  H   -1.94904818292171      1.17224721647163      1.02955757699457
  H   -1.80944140271610      0.07131959191560     -0.38868207188056
  I   0.56678068420444      1.36111007255142     -0.01269359802978
  I   -4.59232163748876      0.67290138444201      0.01366298220157
