6
Coordinates from ORCA-job scants+numfreq
  C   -1.91740446491141      1.02973246457678      0.00000079202051
  H   -2.03048521587825      1.86109947557199     -0.65649132558583
  H   -1.93066095045747      1.17831551234108      1.05484087774995
  H   -1.78760460751483      0.05024430171061     -0.39836486575338
  I   0.67866972306892      1.37603987706607     -0.01326261831583
  I   -4.51405448430694      0.68334836873348      0.01326713988457
