6
Coordinates from ORCA-job scants+numfreq
  C   -1.80123029016140      1.04522967824562     -0.00059276146426
  H   -2.04743217915712      1.85338944192732     -0.65217462668271
  H   -1.94825061916569      1.17500114618432      1.04814022991665
  H   -1.80611497823746      0.05419232154522     -0.39570996497761
  I   0.60910996632536      1.36676085611753     -0.01290722300826
  I   -4.50762189960368      0.68420655598001      0.01323434621619
